@<TRIPOS>MOLECULE
ZINC13298313
   14    15     0     0     0
SMALL
USER_CHARGES

@<TRIPOS>ATOM
      1 C1         -0.0126    1.0758    0.0080 C.2       1 <0>         0.1322
      2 C2          1.1170    1.9153    0.0017 C.2       1 <0>        -0.3440
      3 C3          2.5626    1.6925   -0.0140 C.2       1 <0>         0.5744
      4 O1          3.0285    0.5669   -0.0250 O.2       1 <0>        -0.5142
      5 N1          3.3634    2.7839   -0.0164 N.am      1 <0>        -0.6521
      6 C4          2.8234    4.0286   -0.0045 C.2       1 <0>         0.4222
      7 N2          1.5409    4.2455    0.0095 N.2       1 <0>        -0.5375
      8 C5          0.6519    3.2398    0.0132 C.2       1 <0>         0.3389
      9 N3         -0.7047    3.1744    0.0259 N.pl3     1 <0>        -0.4509
     10 N4         -1.0803    1.8252    0.0165 N.2       1 <0>        -0.2651
     11 H1         -1.3098    3.9324    0.0360 H         1 <0>         0.4488
     12 H2          0.0021   -0.0041    0.0020 H         1 <0>         0.2012
     13 H3          3.4894    4.8788   -0.0065 H         1 <0>         0.2194
     14 H4          4.3273    2.6757   -0.0264 H         1 <0>         0.4267
@<TRIPOS>BOND
     1    1   12 1
     2    1    2 1
     3    1   10 2
     4    2    3 1
     5    2    8 2
     6    3    4 2
     7    3    5 am
     8    5    6 1
     9    5   14 1
    10    6    7 2
    11    6   13 1
    12    7    8 1
    13    8    9 1
    14    9   11 1
    15    9   10 1
