@<TRIPOS>MOLECULE
ZINC00004785
   30    32     0     0     0
SMALL
USER_CHARGES

@<TRIPOS>ATOM
      1 C1         -0.0158    1.3103    0.0092 C.ar      1 <0>        -0.1153
      2 C2          1.2504    2.0631    0.0012 C.ar      1 <0>        -0.1084
      3 C3          2.3957    1.4175   -0.0238 C.ar      1 <0>        -0.1046
      4 C4          2.4154   -0.0573   -0.0438 C.ar      1 <0>         0.1739
      5 C5          1.2872   -0.7303   -0.0141 C.ar      1 <0>        -0.0719
      6 C6          0.0021   -0.0041    0.0020 C.ar      1 <0>        -0.0977
      7 C7          1.2853   -2.1955    0.0402 C.2       1 <0>        -0.0861
      8 C8          2.1005   -2.9722   -0.5975 C.2       1 <0>        -0.1110
      9 C9          3.1721   -2.5248   -1.4939 C.ar      1 <0>        -0.0536
     10 C10         3.4476   -3.2857   -2.7284 C.ar      1 <0>        -0.0939
     11 C11         4.4230   -2.9170   -3.5290 C.ar      1 <0>        -0.1159
     12 C12         5.2437   -1.7405   -3.1942 C.ar      1 <0>        -0.0984
     13 C13         4.9906   -1.0548   -2.1012 C.ar      1 <0>        -0.1322
     14 C14         3.8874   -1.4612   -1.2093 C.ar      1 <0>         0.1304
     15 N1          3.5996   -0.7020   -0.1304 N.am      1 <0>        -0.5161
     16 C15         4.4995   -0.5867    0.8663 C.2       1 <0>         0.7094
     17 O1          4.2451    0.0941    1.8372 O.2       1 <0>        -0.5635
     18 N2          5.6820   -1.2280    0.7841 N.am      1 <0>        -0.8572
     19 H1         -0.9580    1.8379    0.0256 H         1 <0>         0.1306
     20 H2          1.2381    3.1429    0.0155 H         1 <0>         0.1306
     21 H3          3.3245    1.9686   -0.0301 H         1 <0>         0.1243
     22 H4         -0.9270   -0.5547    0.0079 H         1 <0>         0.1298
     23 H5          0.5411   -2.6662    0.6654 H         1 <0>         0.1255
     24 H6          1.9826   -4.0367   -0.4581 H         1 <0>         0.1260
     25 H7          2.8462   -4.1483   -2.9745 H         1 <0>         0.1319
     26 H8          4.6222   -3.4759   -4.4314 H         1 <0>         0.1325
     27 H9          6.0521   -1.4418   -3.8451 H         1 <0>         0.1331
     28 H10         5.5919   -0.1920   -1.8553 H         1 <0>         0.1286
     29 H11         5.8855   -1.7726    0.0076 H         1 <0>         0.4008
     30 H12         6.3296   -1.1451    1.5014 H         1 <0>         0.4184
@<TRIPOS>BOND
     1    1    6 ar
     2    1    2 ar
     3    1   19 1
     4    2    3 ar
     5    2   20 1
     6    3    4 ar
     7    3   21 1
     8    4   15 1
     9    4    5 ar
    10    5    6 ar
    11    5    7 1
    12    6   22 1
    13    7    8 2
    14    7   23 1
    15    8    9 1
    16    8   24 1
    17    9   14 ar
    18    9   10 ar
    19   10   11 ar
    20   10   25 1
    21   11   12 ar
    22   11   26 1
    23   12   13 ar
    24   12   27 1
    25   13   14 ar
    26   13   28 1
    27   14   15 1
    28   15   16 am
    29   16   17 2
    30   16   18 am
    31   18   29 1
    32   18   30 1
